@<TRIPOS>MOLECULE
acetone.pdb
 10 9 0 0 0
SMALL
GASTEIGER

@<TRIPOS>ATOM
      1  C1         1.2730   -0.2130   -0.0920 C.3     1  UNL1       -0.0063
      2  C2        -0.0060    0.5430   -0.1420 C.2     1  UNL1        0.1273
      3  O1         0.0760    1.7210   -0.4740 O.2     1  UNL1       -0.2980
      4  C3        -1.2830   -0.1260    0.1970 C.3     1  UNL1       -0.0063
      5  H1         1.7970    0.1360    0.8400 H       1  UNL1        0.0306
      6  H2         1.8450    0.0720   -1.0000 H       1  UNL1        0.0306
      7  H3         1.0820   -1.3110   -0.0450 H       1  UNL1        0.0306
      8  H4        -1.9790    0.0890   -0.6630 H       1  UNL1        0.0306
      9  H5        -1.6800    0.2950    1.1470 H       1  UNL1        0.0306
     10  H6        -1.1250   -1.2070    0.2310 H       1  UNL1        0.0306
@<TRIPOS>BOND
     1     1     2    1
     2     1     5    1
     3     1     6    1
     4     1     7    1
     5     2     3    2
     6     2     4    1
     7     4     8    1
     8     4     9    1
     9     4    10    1
